tests/data/power_flow/pandapower/networks/asymmetric/transmission-case/asym_output.json
{
  "version": "1.0",
  "type": "asym_output",
  "is_batch": false,
  "attributes": {},
  "data": {
    "line": [
      {
        "id": 12,
        "p_from": [
          23332871.573078427,
          23332871.573078435,
          23332871.573078435
        ],
        "q_from": [
          5542707.199583909,
          5542707.199583905,
          5542707.199583912
        ],
        "p_to": [
          -23270042.064850762,
          -23270042.064850766,
          -23270042.064850762
        ],
        "q_to": [
          -5752804.741256285,
          -5752804.741256284,
          -5752804.741256287
        ]
      },
      {
        "id": 13,
        "p_from": [
          46602921.54155026,
          46602921.54155025,
          46602921.54155025
        ],
        "q_from": [
          13632852.028357724,
          13632852.028357707,
          13632852.028357733
        ],
        "p_to": [
          -46446787.03563126,
          -46446787.03563126,
          -46446787.03563125
        ],
        "q_to": [
          -12290534.036433807,
          -12290534.036433792,
          -12290534.036433818
        ]
      },
      {
        "id": 14,
        "p_from": [
          7179091.0787918465,
          7179091.0787918465,
          7179091.0787918465
        ],
        "q_from": [
          4921624.741787829,
          4921624.741787827,
          4921624.74178783
        ],
        "p_to": [
          -7148486.612635858,
          -7148486.612635858,
          -7148486.612635858
        ],
        "q_to": [
          -11562630.548754806,
          -11562630.548754802,
          -11562630.548754806
        ]
      },
      {
        "id": 15,
        "p_from": [
          7179091.0787918465,
          7179091.0787918465,
          7179091.0787918465
        ],
        "q_from": [
          4921624.741787829,
          4921624.741787827,
          4921624.74178783
        ],
        "p_to": [
          -7148486.612635858,
          -7148486.612635858,
          -7148486.612635858
        ],
        "q_to": [
          -11562630.548754806,
          -11562630.548754802,
          -11562630.548754806
        ]
      },
      {
        "id": 16,
        "p_from": [
          7148486.612635865,
          7148486.612635865,
          7148486.612635865
        ],
        "q_from": [
          11562630.548754677,
          11562630.548754675,
          11562630.548754679
        ],
        "p_to": [
          -7077111.100799075,
          -7077111.100799077,
          -7077111.100799077
        ],
        "q_to": [
          -17365944.07317065,
          -17365944.073170647,
          -17365944.07317065
        ]
      },
      {
        "id": 17,
        "p_from": [
          7148486.612635865,
          7148486.612635865,
          7148486.612635865
        ],
        "q_from": [
          11562630.548754677,
          11562630.548754675,
          11562630.548754679
        ],
        "p_to": [
          -7077111.100799075,
          -7077111.100799077,
          -7077111.100799077
        ],
        "q_to": [
          -17365944.07317065,
          -17365944.073170647,
          -17365944.07317065
        ]
      },
      {
        "id": 18,
        "p_from": [
          -44648755.27240378,
          -44648755.27240373,
          -44648755.272403754
        ],
        "q_from": [
          32761662.886361074,
          32761662.88636109,
          32761662.88636105
        ],
        "p_to": [
          44885474.19045991,
          44885474.19045988,
          44885474.19045988
        ],
        "q_to": [
          -30580762.940151084,
          -30580762.94015109,
          -30580762.940151066
        ]
      },
      {
        "id": 19,
        "p_from": [
          -21552514.208395876,
          -21552514.208395872,
          -21552514.208395865
        ],
        "q_from": [
          36859062.99594112,
          36859062.99594111,
          36859062.9959411
        ],
        "p_to": [
          21675505.763653494,
          21675505.76365349,
          21675505.76365349
        ],
        "q_to": [
          -35963140.092374444,
          -35963140.092374444,
          -35963140.09237444
        ]
      }
    ],
    "node": [
      {
        "id": 1,
        "u_pu": [
          1.177233926331511,
          1.1772339263315108,
          1.1772339263315108
        ],
        "u": [
          13593.526485333161,
          13593.526485333156,
          13593.526485333156
        ],
        "u_angle": [
          0.031122812732701562,
          -2.063272289660494,
          2.1255179151258967
        ]
      },
      {
        "id": 2,
        "u_pu": [
          1.167219820018991,
          1.167219820018991,
          1.167219820018991
        ],
        "u": [
          13477.89354582862,
          13477.89354582862,
          13477.89354582862
        ],
        "u_angle": [
          0.006304792680448868,
          -2.0880903097127463,
          2.100699895073644
        ]
      },
      {
        "id": 3,
        "u_pu": [
          1.17674358093925,
          1.17674358093925,
          1.17674358093925
        ],
        "u": [
          156260.44134116123,
          156260.44134116123,
          156260.44134116123
        ],
        "u_angle": [
          0.029438466605589613,
          -2.0649566357876057,
          2.123833568998785
        ]
      },
      {
        "id": 4,
        "u_pu": [
          1.1665250886208387,
          1.1665250886208385,
          1.1665250886208385
        ],
        "u": [
          154903.52200428947,
          154903.52200428944,
          154903.52200428944
        ],
        "u_angle": [
          0.004591114398173808,
          -2.089803987995021,
          2.098986216791369
        ]
      },
      {
        "id": 5,
        "u_pu": [
          1.1528542568168278,
          1.1528542568168278,
          1.1528542568168276
        ],
        "u": [
          153088.16456720835,
          153088.16456720835,
          153088.16456720833
        ],
        "u_angle": [
          -0.025681719366357946,
          -2.1200768217595534,
          2.068713383026837
        ]
      },
      {
        "id": 6,
        "u_pu": [
          1.1266874406881626,
          1.1266874406881626,
          1.1266874406881626
        ],
        "u": [
          149613.4583499927,
          149613.4583499927,
          149613.4583499927
        ],
        "u_angle": [
          -0.04177029101898122,
          -2.1361653934121763,
          2.0526248113742143
        ]
      },
      {
        "id": 7,
        "u_pu": [
          1.0809155213417632,
          1.0809155213417632,
          1.0809155213417632
        ],
        "u": [
          143535.3794601197,
          143535.3794601197,
          143535.3794601197
        ],
        "u_angle": [
          -0.05709176328608291,
          -2.1514868656792783,
          2.0373033391071123
        ]
      },
      {
        "id": 8,
        "u_pu": [
          1.058028673591936,
          1.058028673591936,
          1.058028673591936
        ],
        "u": [
          140496.2220869888,
          140496.2220869888,
          140496.2220869888
        ],
        "u_angle": [
          -0.019360270505475646,
          -2.113755372898671,
          2.0750348318877196
        ]
      },
      {
        "id": 9,
        "u_pu": [
          1.0334622584189985,
          1.0334622584189985,
          1.0334622584189985
        ],
        "u": [
          137234.03401197132,
          137234.03401197132,
          137234.03401197132
        ],
        "u_angle": [
          -0.0020363128975801775,
          -2.0964314152907755,
          2.092358789495615
        ]
      },
      {
        "id": 10,
        "u_pu": [
          1.0586402415681617,
          1.0586402415681615,
          1.0586402415681615
        ],
        "u": [
          12224.124568886973,
          12224.124568886971,
          12224.124568886971
        ],
        "u_angle": [
          -0.01727707013164669,
          -2.111672172524842,
          2.077118032261549
        ]
      },
      {
        "id": 11,
        "u_pu": [
          1.03,
          1.03,
          1.03
        ],
        "u": [
          11893.415545306292,
          11893.415545306292,
          11893.415545306292
        ],
        "u_angle": [
          -6.15035062055151e-29,
          -2.0943951023931953,
          2.0943951023931953
        ]
      }
    ],
    "sym_gen": [
      {
        "id": 21,
        "p": [
          23333333.333333332,
          23333333.333333332,
          23333333.333333332
        ],
        "q": [
          6000000.0,
          6000000.0,
          6000000.0
        ]
      },
      {
        "id": 22,
        "p": [
          23333333.333333332,
          23333333.333333332,
          23333333.333333332
        ],
        "q": [
          8333333.333333334,
          8333333.333333334,
          8333333.333333334
        ]
      },
      {
        "id": 23,
        "p": [
          23333333.333333332,
          23333333.333333332,
          23333333.333333332
        ],
        "q": [
          6666666.666666667,
          6666666.666666667,
          6666666.666666667
        ]
      }
    ],
    "sym_load": [
      {
        "id": 24,
        "p": [
          32000000.0,
          32000000.0,
          32000000.0
        ],
        "q": [
          3333333.3333333335,
          3333333.3333333335,
          3333333.3333333335
        ]
      },
      {
        "id": 25,
        "p": [
          58666666.666666664,
          58666666.666666664,
          58666666.666666664
        ],
        "q": [
          3333333.3333333335,
          3333333.3333333335,
          3333333.3333333335
        ]
      }
    ],
    "transformer": [
      {
        "id": 30,
        "p_from": [
          -23332871.57307838,
          -23332871.573078383,
          -23332871.57307838
        ],
        "q_from": [
          -5542707.199586316,
          -5542707.199586314,
          -5542707.199586321
        ],
        "p_to": [
          23333333.333333302,
          23333333.333333306,
          23333333.333333306
        ],
        "q_to": [
          6000000.000001389,
          6000000.000001384,
          6000000.000001391
        ]
      },
      {
        "id": 31,
        "p_from": [
          -23332879.476699486,
          -23332879.476699483,
          -23332879.47669948
        ],
        "q_from": [
          -7880047.2871058155,
          -7880047.28710581,
          -7880047.28710582
        ],
        "p_to": [
          23333333.333333306,
          23333333.3333333,
          23333333.333333302
        ],
        "q_to": [
          8333333.333334266,
          8333333.333334258,
          8333333.33333427
        ]
      },
      {
        "id": 32,
        "p_from": [
          -21675505.76365359,
          -21675505.76365358,
          -21675505.763653584
        ],
        "q_from": [
          35963140.092370205,
          35963140.09237021,
          35963140.092370205
        ],
        "p_to": [
          21675860.581004478,
          21675860.581004478,
          21675860.581004474
        ],
        "q_to": [
          -35479791.12496434,
          -35479791.124964334,
          -35479791.124964334
        ]
      },
      {
        "id": 33,
        "p_from": [
          -23332959.982063998,
          -23332959.982063986,
          -23332959.982063986
        ],
        "q_from": [
          -6278300.055790279,
          -6278300.055790271,
          -6278300.05579029
        ],
        "p_to": [
          23333333.333333325,
          23333333.33333332,
          23333333.333333313
        ],
        "q_to": [
          6666666.666665236,
          6666666.666665227,
          6666666.666665249
        ]
      }
    ]
  }
}
